Version 4
SHEET 1 880 788
WIRE 224 -64 224 -112
WIRE 224 -64 112 -64
WIRE 320 -64 224 -64
WIRE 112 0 112 -64
WIRE 320 0 320 -64
WIRE 320 112 320 80
WIRE 320 112 240 112
WIRE 480 112 320 112
WIRE 592 112 544 112
WIRE 240 160 240 112
WIRE 272 160 240 160
WIRE -16 192 -96 192
WIRE 112 192 112 80
WIRE 112 192 48 192
WIRE 272 192 112 192
WIRE 400 192 336 192
WIRE -96 224 -96 192
WIRE -512 272 -512 224
WIRE 112 272 112 192
WIRE 304 272 224 272
WIRE 400 272 400 192
WIRE 400 272 304 272
WIRE -512 384 -512 352
WIRE 224 400 224 272
WIRE 272 400 224 400
WIRE -96 432 -128 432
WIRE -16 432 -96 432
WIRE 112 432 112 352
WIRE 112 432 48 432
WIRE 272 432 112 432
WIRE 384 432 336 432
WIRE -128 496 -128 432
WIRE 384 496 384 432
WIRE 384 496 320 496
WIRE 432 496 384 496
WIRE 112 512 112 432
WIRE 320 512 320 496
WIRE 432 528 432 496
WIRE -128 672 -128 576
WIRE 112 672 112 592
WIRE 112 672 -128 672
WIRE 256 672 112 672
WIRE 320 672 320 592
WIRE 320 672 256 672
WIRE 432 672 432 592
WIRE 432 672 320 672
WIRE 256 768 256 672
FLAG -96 432 Vin
FLAG 592 112 Vout
FLAG 112 192 V1
FLAG 112 432 V2
FLAG 304 272 Vo1
FLAG 256 768 0
FLAG -96 224 0
FLAG 224 -112 Vcc
FLAG -512 224 Vcc
FLAG -512 384 0
SYMBOL res 96 -16 R0
WINDOW 3 36 68 Left 2
SYMATTR Value 13
SYMATTR InstName R3
SYMBOL res 96 256 R0
WINDOW 3 36 68 Left 2
SYMATTR Value 59
SYMATTR InstName R1
SYMBOL res 96 496 R0
WINDOW 3 36 68 Left 2
SYMATTR Value 415
SYMATTR InstName R2
SYMBOL res 304 -16 R0
WINDOW 3 36 68 Left 2
SYMATTR Value 50
SYMATTR InstName R_C
SYMBOL res 304 496 R0
WINDOW 3 36 68 Left 2
SYMATTR Value 410
SYMATTR InstName R_E
SYMBOL cap 48 416 R90
WINDOW 0 0 32 VBottom 2
WINDOW 3 32 32 VTop 2
SYMATTR InstName Cin
SYMATTR Value 22n
SYMBOL cap 48 176 R90
WINDOW 0 0 32 VBottom 2
WINDOW 3 32 32 VTop 2
SYMATTR InstName Cbyp
SYMATTR Value 22n
SYMBOL cap 544 96 R90
WINDOW 0 0 32 VBottom 2
WINDOW 3 32 32 VTop 2
SYMATTR InstName Cout
SYMATTR Value 22n
SYMBOL cap 448 592 R180
WINDOW 0 -36 63 Left 2
WINDOW 3 -43 15 Left 2
SYMATTR InstName C_E
SYMATTR Value 22n
SYMBOL AutoGenerated\\BFP842ESD 304 176 R0
SYMATTR InstName U1
SYMBOL AutoGenerated\\BFP842ESD 304 416 R0
SYMATTR InstName U2
SYMBOL voltage -512 256 R0
WINDOW 123 0 0 Left 0
WINDOW 39 0 0 Left 0
SYMATTR InstName V1
SYMATTR Value 3.3
SYMBOL voltage -128 480 R0
SYMATTR InstName Vin
SYMATTR Value AC 1e-6
TEXT -880 568 Left 2 !.ac dec 10000 1e5 1e9
