Version 4
SHEET 1 1368 680
WIRE 80 -336 -256 -336
WIRE -256 -288 -256 -336
WIRE 80 -256 80 -336
WIRE 80 -256 -48 -256
WIRE -256 -176 -256 -208
WIRE -48 -144 -48 -256
WIRE 80 -96 80 -256
WIRE 80 -96 16 -96
WIRE 16 -16 16 -96
WIRE 48 -16 16 -16
WIRE -352 16 -400 16
WIRE -224 16 -272 16
WIRE -48 16 -48 -64
WIRE -48 16 -160 16
WIRE 48 16 -48 16
WIRE 192 16 112 16
WIRE 352 16 192 16
WIRE 448 16 416 16
WIRE 544 16 448 16
WIRE 192 64 192 16
WIRE 544 64 544 16
WIRE -400 80 -400 16
WIRE 192 80 192 64
WIRE 544 192 544 144
WIRE -400 256 -400 160
WIRE 192 256 192 160
FLAG -400 256 0
FLAG 192 256 0
FLAG -256 -176 0
FLAG 192 64 E
FLAG -48 16 B
FLAG -400 16 Vin
FLAG 448 16 Vout
FLAG 544 192 0
SYMBOL res -64 -160 R0
WINDOW 3 45 42 Left 2
WINDOW 0 41 15 Left 2
SYMATTR Value 50
SYMATTR InstName Rb1
SYMBOL voltage -400 64 R0
WINDOW 123 24 44 Left 2
WINDOW 39 24 152 Left 2
WINDOW 3 5 121 Left 2
SYMATTR Value2 AC 1e-6
SYMATTR Value ""
SYMATTR InstName Vin
SYMBOL cap -160 0 R90
WINDOW 0 0 32 VBottom 2
WINDOW 3 32 32 VTop 2
SYMATTR InstName Cin
SYMATTR Value 22e-9
SYMATTR SpiceLine V=6.3
SYMBOL cap 416 0 R90
WINDOW 0 -2 33 VBottom 2
WINDOW 3 32 32 VTop 2
SYMATTR InstName Cout
SYMATTR Value 22n
SYMBOL res 176 64 R0
SYMATTR InstName RE
SYMATTR Value 100
SYMBOL voltage -256 -304 R0
WINDOW 123 0 0 Left 0
WINDOW 39 0 0 Left 0
SYMATTR InstName V2
SYMATTR Value 3.3
SYMBOL AutoGenerated\\BFP720 80 0 R0
SYMATTR InstName U1
SYMBOL res -256 0 R90
WINDOW 0 0 56 VBottom 2
WINDOW 3 32 56 VTop 2
SYMATTR InstName R1
SYMATTR Value 0
SYMBOL res 528 48 R0
SYMATTR InstName R2
SYMATTR Value 300
TEXT 208 -232 Left 2 !.ac dec 10000 1e5 1e9
