Version 4
SHEET 1 1368 680
WIRE 80 -336 -256 -336
WIRE -256 -288 -256 -336
WIRE 80 -256 80 -336
WIRE 80 -256 -48 -256
WIRE 192 -256 80 -256
WIRE -256 -176 -256 -208
WIRE 192 -160 192 -256
WIRE -48 -144 -48 -256
WIRE 192 -64 192 -80
WIRE 192 -64 16 -64
WIRE 320 -64 192 -64
WIRE 416 -64 384 -64
WIRE 496 -64 416 -64
WIRE 16 -16 16 -64
WIRE 48 -16 16 -16
WIRE -336 16 -368 16
WIRE -224 16 -256 16
WIRE -48 16 -48 -64
WIRE -48 16 -160 16
WIRE 48 16 -48 16
WIRE 192 16 112 16
WIRE 496 32 496 -64
WIRE -368 64 -368 16
WIRE 192 64 192 16
WIRE 272 64 192 64
WIRE -368 80 -368 64
WIRE -48 80 -48 16
WIRE 192 80 192 64
WIRE 272 80 272 64
WIRE 192 192 192 160
WIRE 272 192 272 144
WIRE 272 192 192 192
WIRE -368 256 -368 160
WIRE -48 256 -48 160
WIRE 192 256 192 192
WIRE 496 256 496 112
FLAG -368 256 0
FLAG -48 256 0
FLAG 192 256 0
FLAG -256 -176 0
FLAG 192 64 E
FLAG 192 -64 C
FLAG -48 16 N1
FLAG -368 64 Vin
FLAG 416 -64 Vout
FLAG 496 256 0
SYMBOL res -64 64 R0
SYMATTR InstName Rb2
SYMATTR Value 357
SYMBOL res -64 -160 R0
WINDOW 3 45 42 Left 2
WINDOW 0 41 15 Left 2
SYMATTR Value 60.4
SYMATTR InstName Rb1
SYMBOL voltage -368 64 R0
WINDOW 123 24 44 Left 2
WINDOW 39 24 152 Left 2
WINDOW 3 5 121 Left 2
SYMATTR Value2 AC 1e-6
SYMATTR Value ""
SYMATTR InstName Vin
SYMBOL cap -160 0 R90
WINDOW 0 0 32 VBottom 2
WINDOW 3 32 32 VTop 2
SYMATTR InstName Cin
SYMATTR Value 22n
SYMATTR SpiceLine V=6.3
SYMBOL res 176 -176 R0
SYMATTR InstName RC
SYMATTR Value 49.9
SYMBOL cap 384 -80 R90
WINDOW 0 -2 33 VBottom 2
WINDOW 3 32 32 VTop 2
SYMATTR InstName Cout
SYMATTR Value 22n
SYMBOL res 176 64 R0
SYMATTR InstName RE
SYMATTR Value 412
SYMBOL cap 256 80 R0
SYMATTR InstName CE
SYMATTR Value 22n
SYMBOL voltage -256 -304 R0
WINDOW 123 0 0 Left 0
WINDOW 39 0 0 Left 0
SYMATTR InstName V2
SYMATTR Value 3.3
SYMBOL AutoGenerated\\BFP760 80 0 R0
SYMATTR InstName U1
SYMBOL res -240 0 R90
WINDOW 0 0 56 VBottom 2
WINDOW 3 32 56 VTop 2
SYMATTR InstName Rs
SYMATTR Value 50
SYMBOL res 480 16 R0
SYMATTR InstName RL
SYMATTR Value 50
TEXT 208 -232 Left 2 !.op dec 10000 1e5 1e9
