Version 4
SHEET 1 1156 680
WIRE 160 -32 -96 -32
WIRE 160 16 160 -32
WIRE 160 16 64 16
WIRE 256 16 160 16
WIRE 64 80 64 16
WIRE 256 80 256 16
WIRE -96 96 -96 -32
WIRE 256 176 256 160
WIRE 256 176 112 176
WIRE 368 176 256 176
WIRE 112 240 112 176
WIRE 144 240 112 240
WIRE 64 272 64 160
WIRE 144 272 64 272
WIRE 256 272 208 272
WIRE 64 320 64 272
WIRE -96 512 -96 176
WIRE 64 512 64 400
WIRE 256 512 256 272
FLAG 256 512 0
FLAG 64 512 0
FLAG -96 512 0
FLAG 368 176 C
FLAG 64 272 B
SYMBOL res 48 64 R0
SYMATTR InstName R1
SYMATTR Value 150K
SYMBOL res 48 304 R0
SYMATTR InstName R2
SYMATTR Value 68K
SYMBOL res 240 64 R0
SYMATTR InstName R3
SYMATTR Value 390
SYMBOL voltage -96 80 R0
WINDOW 123 0 0 Left 0
WINDOW 39 0 0 Left 0
SYMATTR InstName V1
SYMATTR Value 3.3
SYMBOL AutoGenerated\\BFP842ESD 176 256 R0
SYMATTR InstName U1
TEXT 376 296 Left 2 !.op
