Version 4
SHEET 1 1680 680
WIRE 80 -336 -256 -336
WIRE 864 -336 80 -336
WIRE -256 -288 -256 -336
WIRE 80 -256 80 -336
WIRE 80 -256 -48 -256
WIRE 192 -256 80 -256
WIRE 864 -256 864 -336
WIRE 864 -256 736 -256
WIRE 976 -256 864 -256
WIRE -256 -176 -256 -208
WIRE 192 -160 192 -256
WIRE 976 -160 976 -256
WIRE -48 -144 -48 -256
WIRE 736 -144 736 -256
WIRE 192 -64 192 -80
WIRE 192 -64 16 -64
WIRE 320 -64 192 -64
WIRE 416 -64 384 -64
WIRE 608 -64 416 -64
WIRE 976 -64 976 -80
WIRE 976 -64 800 -64
WIRE 1104 -64 976 -64
WIRE 1200 -64 1168 -64
WIRE 1264 -64 1200 -64
WIRE 16 -16 16 -64
WIRE 48 -16 16 -16
WIRE 800 -16 800 -64
WIRE 832 -16 800 -16
WIRE 1264 -16 1264 -64
WIRE -336 16 -368 16
WIRE -224 16 -256 16
WIRE -48 16 -48 -64
WIRE -48 16 -160 16
WIRE 48 16 -48 16
WIRE 192 16 112 16
WIRE 608 16 608 -64
WIRE 736 16 736 -64
WIRE 736 16 608 16
WIRE 832 16 736 16
WIRE 976 16 896 16
WIRE -368 64 -368 16
WIRE 192 64 192 16
WIRE 272 64 192 64
WIRE 976 64 976 16
WIRE 1056 64 976 64
WIRE -368 80 -368 64
WIRE -48 80 -48 16
WIRE 192 80 192 64
WIRE 272 80 272 64
WIRE 736 80 736 16
WIRE 976 80 976 64
WIRE 1056 80 1056 64
WIRE 192 192 192 160
WIRE 272 192 272 144
WIRE 272 192 192 192
WIRE 976 192 976 160
WIRE 1056 192 1056 144
WIRE 1056 192 976 192
WIRE -368 256 -368 160
WIRE -48 256 -48 160
WIRE 192 256 192 192
WIRE 736 256 736 160
WIRE 976 256 976 192
WIRE 1264 256 1264 64
FLAG -368 256 0
FLAG -48 256 0
FLAG 192 256 0
FLAG -256 -176 0
FLAG 192 64 E1
FLAG 192 -64 C1
FLAG -48 16 V1
FLAG -368 64 Vin
FLAG 416 -64 Vout1
FLAG 736 256 0
FLAG 976 256 0
FLAG 976 64 E2
FLAG 976 -64 C2
FLAG 736 16 V2
FLAG 1200 -64 Vout2
FLAG 1264 256 0
SYMBOL res -64 64 R0
SYMATTR InstName R2_1
SYMATTR Value 235
SYMBOL res -64 -160 R0
WINDOW 3 45 42 Left 2
WINDOW 0 41 15 Left 2
SYMATTR Value 80
SYMATTR InstName R1_1
SYMBOL voltage -368 64 R0
WINDOW 123 24 44 Left 2
WINDOW 39 24 152 Left 2
WINDOW 3 5 121 Left 2
SYMATTR Value2 AC 1e-6
SYMATTR Value ""
SYMATTR InstName Vin
SYMBOL cap -160 0 R90
WINDOW 0 0 32 VBottom 2
WINDOW 3 32 32 VTop 2
SYMATTR InstName Cin1
SYMATTR Value 22n
SYMATTR SpiceLine V=6.3
SYMBOL res 176 -176 R0
SYMATTR InstName RC1
SYMATTR Value 266
SYMBOL cap 384 -80 R90
WINDOW 0 -2 33 VBottom 2
WINDOW 3 32 32 VTop 2
SYMATTR InstName Cout1
SYMATTR Value 22n
SYMBOL res 176 64 R0
SYMATTR InstName RE1
SYMATTR Value 340
SYMBOL cap 256 80 R0
SYMATTR InstName CE1
SYMATTR Value 22n
SYMBOL voltage -256 -304 R0
WINDOW 123 0 0 Left 0
WINDOW 39 0 0 Left 0
SYMATTR InstName V2
SYMATTR Value 3.3
SYMBOL res -240 0 R90
WINDOW 0 0 56 VBottom 2
WINDOW 3 32 56 VTop 2
SYMATTR InstName Rs
SYMATTR Value 0
SYMBOL res 720 64 R0
SYMATTR InstName R2_2
SYMATTR Value 2760
SYMBOL res 720 -160 R0
WINDOW 3 45 42 Left 2
WINDOW 0 41 15 Left 2
SYMATTR Value 480
SYMATTR InstName R1_2
SYMBOL res 960 -176 R0
SYMATTR InstName RC2
SYMATTR Value 57
SYMBOL cap 1168 -80 R90
WINDOW 0 -2 33 VBottom 2
WINDOW 3 32 32 VTop 2
SYMATTR InstName Cout2
SYMATTR Value 22n
SYMBOL res 960 64 R0
SYMATTR InstName RE2
SYMATTR Value 410
SYMBOL cap 1040 80 R0
SYMATTR InstName CE2
SYMATTR Value 22n
SYMBOL AutoGenerated\\BFP842ESD 80 0 R0
SYMATTR InstName U1
SYMBOL AutoGenerated\\BFP842ESD 864 0 R0
SYMATTR InstName U2
SYMBOL res 1248 -32 R0
SYMATTR InstName R_L
SYMATTR Value 10T
TEXT 1360 440 Left 2 !.ac lin 10000 125e6 500e6
